Casos/pglib_opf_case30_as/datosNodos.csv
bus_i;type;Pd;Qd;Gs;Bs;area;Vm;Va;baseKV;zone;Vmax;Vmin
1;3;0;0;0;0;1;1;0;135;1;1.05;0.95
2;2;21.7;12.7;0;0;1;1.025;0;135;1;1.1;0.95
3;1;2.4;1.2;0;0;1;1;0;135;1;1.05;0.95
4;1;7.6;1.6;0;0;1;1;0;135;1;1.05;0.95
5;1;94.2;19;0;0;1;1;0;135;1;1.05;0.95
6;1;0;0;0;0;1;1;0;135;1;1.05;0.95
7;1;22.8;10.9;0;0;1;1;0;135;1;1.05;0.95
8;1;30;30;0;0;1;1;0;135;1;1.05;0.95
9;1;0;0;0;0;1;1;0;135;1;1.05;0.95
10;1;5.8;2;0;5.26;1;1;0;135;1;1.05;0.95
11;1;0;0;0;0;1;1;0;135;1;1.05;0.95
12;1;11.2;7.5;0;0;1;1;0;135;1;1.05;0.95
13;2;0;0;0;0;1;1.025;0;135;1;1.1;0.95
14;1;6.2;1.6;0;0;1;1;0;135;1;1.05;0.95
15;1;8.2;2.5;0;0;1;1;0;135;1;1.05;0.95
16;1;3.5;1.8;0;0;1;1;0;135;1;1.05;0.95
17;1;9;5.8;0;0;1;1;0;135;1;1.05;0.95
18;1;3.2;0.9;0;0;1;1;0;135;1;1.05;0.95
19;1;9.5;3.4;0;0;1;1;0;135;1;1.05;0.95
20;1;2.2;0.7;0;0;1;1;0;135;1;1.05;0.95
21;1;17.5;11.2;0;0;1;1;0;135;1;1.05;0.95
22;2;0;0;0;0;1;1.025;0;135;1;1.1;0.95
23;2;3.2;1.6;0;0;1;1.025;0;135;1;1.1;0.95
24;1;8.7;6.7;0;25;1;1;0;135;1;1.05;0.95
25;1;0;0;0;0;1;1;0;135;1;1.05;0.95
26;1;3.5;2.3;0;0;1;1;0;135;1;1.05;0.95
27;2;0;0;0;0;1;1.025;0;135;1;1.1;0.95
28;1;0;0;0;0;1;1;0;135;1;1.05;0.95
29;1;2.4;0.9;0;0;1;1;0;135;1;1.05;0.95
30;1;10.6;1.9;0;0;1;1;0;135;1;1.05;0.95
